LAMMPS (4 May 2022)
# MM for water dimer

units		real
atom_style	full

bond_style      harmonic
angle_style     harmonic

read_data       data.water.dimer
Reading data file ...
  orthogonal box = (-5 -5 -5) to (5 5 5)
  reading atoms ...
  6 atoms
  scanning bonds ...
  scanning angles ...
  reading bonds ...
  4 bonds
  reading angles ...
  2 angles
Finding 1-2 1-3 1-4 neighbors ...
     2 = max # of 1-2 neighbors
     1 = max # of 1-3 neighbors
     1 = max # of 1-4 neighbors
     2 = max # of special neighbors

group           mm molecule 1
3 atoms in group mm
group           qm molecule 2
3 atoms in group qm

# pair style must define stand-alone short-range Coulombics

pair_style      lj/cut/coul/cut 6.0
pair_coeff      1 1 0.13506 3.166
pair_coeff      2 2 0.0 1.0

velocity        all create 300.0 458732

neighbor	1.0 bin
neigh_modify	delay 0 every 1 check yes

fix		1 all nve

compute         1 all pair/local dist
compute         2 all reduce max c_1

variable        fxabs atom abs(fx)
variable        fyabs atom abs(fy)
variable        fzabs atom abs(fz)
variable        qabs atom abs(q)
compute         3 all reduce max v_fxabs v_fyabs v_fzabs v_qabs

dump            1 all custom 1 dump.water.dimer.mm id x y z q fx fy fz
dump_modify     1 sort id format float "%20.16g"

timestep        0.01

thermo_style    custom step cpu temp ke evdwl ecoul epair emol elong pe etotal press                 c_2 c_3[*]

thermo          1

run		1000
Generated 1 of 1 mixed pair_coeff terms from geometric mixing rule
  update every 1 steps, delay 0 steps, check yes
Step          CPU            Temp          KinEng         E_vdwl         E_coul         E_pair         E_mol          E_long         PotEng         TotEng         Press           c_2           c_3[1]         c_3[2]         c_3[3]         c_3[4]
0   0              300            4.4712151      1.4460769     -8.6451874     -7.1991105      3.3067213      0             -3.8923892      0.57882592     3501.9716      3.6506239      29.132518      26.894893      39.12903       0.8476
Averages over the last 501 of 1001 rows, steps 500 to 1000:
Temp KinEng E_vdwl E_coul E_pair E_mol E_long PotEng TotEng Press c_2 c_3[1] c_3[2] c_3[3] c_3[4]
301.719 4.49684 1.12254 -8.45342 -7.33089 3.41288 0 -3.91801 0.57883 -367.823 3.75997 36.1249 40.5729 52.4647 0.8476
Loop time of 5.29131 on 1 procs for 1000 steps with 6 atoms
