LAMMPS (4 May 2022)
# QMMM with NWChem for water dimer

units		real
atom_style	full

bond_style      harmonic
angle_style     harmonic

read_data       data.water.dimer
Reading data file ...
  orthogonal box = (-5 -5 -5) to (5 5 5)
  reading atoms ...
  6 atoms
  scanning bonds ...
  scanning angles ...
  reading bonds ...
  4 bonds
  reading angles ...
  2 angles
Finding 1-2 1-3 1-4 neighbors ...
     2 = max # of 1-2 neighbors
     1 = max # of 1-3 neighbors
     1 = max # of 1-4 neighbors
     2 = max # of special neighbors

group           mm molecule 1
3 atoms in group mm
group           qm molecule 2
3 atoms in group qm

# remove bonds/angles in QM water molecule

delete_bonds    qm multi remove special
System init for delete_bonds ...
Deleting bonds ...
  2 total bonds, 2 turned on, 0 turned off
  1 total angles, 1 turned on, 0 turned off
  0 total dihedrals, 0 turned on, 0 turned off
  0 total impropers, 0 turned on, 0 turned off
Finding 1-2 1-3 1-4 neighbors ...
     2 = max # of 1-2 neighbors
     1 = max # of 1-3 neighbors
     1 = max # of 1-4 neighbors
     2 = max # of special neighbors

# pair style must define stand-alone short-range Coulombics

pair_style      hybrid/overlay lj/cut 6.0 coul/cut 6.0
pair_coeff      1 1 lj/cut 0.13506 3.166
pair_coeff      2 2 lj/cut 0.0 1.0
pair_coeff      * * coul/cut

velocity        all create 300.0 458732

neighbor	1.0 bin
neigh_modify	delay 0 every 1 check yes

fix		1 all nve

fix             2 qm nwchem template-water.nw water-dimer.nw                 log.pwdft.water-dimer O H
fix_modify      2 energy yes

compute         1 all pair/local dist
compute         2 all reduce max c_1

variable        fxabs atom abs(fx)
variable        fyabs atom abs(fy)
variable        fzabs atom abs(fz)
variable        qabs atom abs(q)
compute         3 all reduce max v_fxabs v_fyabs v_fzabs v_qabs

dump            1 all custom 1 dump.water.dimer.qmmm id x y z q fx fy fz
dump_modify     1 sort id format float "%20.16g"

timestep        0.01

thermo_style    custom step cpu temp ke evdwl ecoul epair emol elong f_2 pe etotal press                 c_2 c_3[*]

thermo          1

run		1000
Generated 0 of 1 mixed pair_coeff terms from geometric mixing rule
  update every 1 steps, delay 0 steps, check yes
Step          CPU            Temp          KinEng         E_vdwl         E_coul         E_pair         E_mol          E_long          f_2           PotEng         TotEng         Press           c_2           c_3[1]         c_3[2]         c_3[3]         c_3[4]
0   0              300            4.4712151      1.4460769     -156.41522     -154.96914      1.5216554      0             -10694.103     -10847.551     -10843.079     -1340.3569      3.6506239      65.178593      52.412068      222.20969      0.8476
Averages over the last 501 of 1001 rows, steps 500 to 1000:
Temp KinEng E_vdwl E_coul E_pair E_mol E_long f_2 PotEng TotEng Press c_2 c_3[1] c_3[2] c_3[3] c_3[4]
1318.54 19.6515 1.24867 -305.511 -304.263 2.40813 0 -10541.3 -10843.1 -10823.5 -6517.01 3.85386 139.845 118.497 240.171 0.914659
Loop time of 6109.64 on 8 procs for 1000 steps with 6 atoms
